<?xml version="1.0" encoding="utf-8"?>
<RelativeLayout xmlns:android="http://schemas.android.com/apk/res/android"
    android:layout_width="match_parent"
    android:layout_height="match_parent"
    android:background="@mipmap/home_bg1">

    <net.yoojia.imagemap.ImageMap1
        android:id="@+id/imagemap"
        android:layout_width="match_parent"
        android:layout_height="match_parent"
        android:layout_centerInParent="true" />

    <RelativeLayout
        android:layout_width="match_parent"
        android:layout_height="match_parent"
        android:background="@mipmap/home_bg2" />

    <TextView
        android:id="@+id/tv_route_back"
        android:layout_width="75dp"
        android:layout_height="wrap_content"
        android:layout_alignParentRight="true"
        android:layout_marginBottom="15dp"
        android:layout_marginEnd="15dp"
        android:layout_marginLeft="15dp"
        android:layout_marginRight="15dp"
        android:layout_marginStart="15dp"
        android:layout_marginTop="15dp"
        android:background="@drawable/maplist_next_press"
        android:gravity="center"
        android:text="返回"
        android:textColor="@color/white"
        android:textSize="12dp"
        android:textStyle="bold" />

    <ImageView
        android:id="@+id/iv_save"
        android:layout_width="92dp"
        android:layout_height="92dp"
        android:layout_alignParentBottom="true"
        android:layout_alignParentRight="true"
        android:layout_marginBottom="18dp"
        android:layout_marginRight="18dp"
        android:gravity="center"
        android:src="@mipmap/home_start" />

    <TextView
        android:id="@+id/tv_prev"
        android:layout_width="60dp"
        android:layout_height="60dp"
        android:layout_toLeftOf="@+id/iv_save"
        android:layout_alignParentBottom="true"
        android:layout_marginBottom="24dp"
        android:text="撤销"
        android:textColor="@color/white"
        android:gravity="center"
        android:textSize="18dp"
        android:textStyle="bold"
        android:layout_marginRight="12dp"
        android:layout_marginTop="5dp"
        android:background="@drawable/tv_round" />

    <TextView
        android:id="@+id/tv_clear"
        android:layout_width="60dp"
        android:layout_height="60dp"
        android:layout_toLeftOf="@+id/iv_save"
        android:layout_alignParentBottom="true"
        android:layout_marginBottom="90dp"
        android:text="清除"
        android:textColor="@color/white"
        android:textSize="18dp"
        android:gravity="center"
        android:textStyle="bold"
        android:layout_marginRight="-10dp"
        android:layout_marginTop="5dp"
        android:background="@drawable/tv_round" />

</RelativeLayout>

